[root]
type=Root
children=system
eventq_index=0
full_system=true
sim_quantum=0
time_sync_enable=false
time_sync_period=100000000000
time_sync_spin_threshold=100000000

[system]
type=ArmSystem
children=bridge clk_domain collision_detection_clstr cpu cpu_clk_domain cpu_voltage_domain dvfs_handler iobus iocache l2 mem_ctrls membus pci_ide realview terminal tol2bus vncserver voltage_domain workload
auto_reset_addr=true
byte_order=little
cache_line_size=64
eventq_index=0
exit_on_work_items=false
gic_cpu_addr=0
have_crypto=false
have_large_asid_64=false
have_lpae=true
have_lse=true
have_pan=true
have_secel2=true
have_security=false
have_sve=true
have_tme=false
have_vhe=false
have_virtualization=false
highest_el_is_64=true
init_param=0
m5ops_base=0
mem_mode=timing
mem_ranges=2147483648:6442450944
memories=system.collision_detection_clstr.collision_result system.collision_detection_clstr.environment_octree system.collision_detection_clstr.object_bounding_box_of_robot system.collision_detection_clstr.octree_of_environment system.collision_detection_clstr.result_of_collision system.collision_detection_clstr.robot_object_bounding_box system.mem_ctrls.dram system.realview.bootmem system.realview.flash0 system.realview.flash1 system.realview.non_trusted_sram system.realview.trusted_sram system.realview.vram
mmap_using_noreserve=false
multi_proc=true
multi_thread=false
num_work_ids=16
phys_addr_range_64=40
readfile=
redirect_paths=
reset_addr=0
semihosting=Null
shadow_rom_ranges=
shared_backstore=
sve_vl=1
symbolfile=
thermal_components=
thermal_model=Null
work_begin_ckpt_count=0
work_begin_cpu_id_exit=-1
work_begin_exit_count=0
work_cpus_ckpt_count=0
work_end_ckpt_count=0
work_end_exit_count=0
work_item_id=-1
workload=system.workload
system_port=system.membus.cpu_side_ports[0]

[system.bridge]
type=Bridge
children=power_state
clk_domain=system.clk_domain
delay=50000
eventq_index=0
power_model=
power_state=system.bridge.power_state
ranges=201326592:536870912 788529152:2147483648
req_size=16
resp_size=16
cpu_side_port=system.membus.mem_side_ports[0]
mem_side_port=system.iobus.cpu_side_ports[0]

[system.bridge.power_state]
type=PowerState
clk_gate_bins=20
clk_gate_max=1000000000000
clk_gate_min=1000
default_state=UNDEFINED
eventq_index=0
leaders=
possible_states=

[system.clk_domain]
type=SrcClockDomain
clock=1000
domain_id=-1
eventq_index=0
init_perf_level=0
voltage_domain=system.voltage_domain

[system.collision_detection_clstr]
type=AccCluster
children=coherency_bus collision_detection collision_result dma environment_octree local_bus object_bounding_box_of_robot octree_of_environment result_of_collision robot_object_bounding_box top
cache_size=32kB
eventq_index=0
external_range_hi_max=4294967295
external_range_hi_min=2147483648
external_range_low_max=788529151
external_range_low_min=0
local_range_max=2147483647
local_range_min=788529152
system=system

[system.collision_detection_clstr.coherency_bus]
type=CoherentXBar
children=power_state snoop_filter
clk_domain=system.clk_domain
eventq_index=0
forward_latency=0
frontend_latency=1
header_latency=1
max_outstanding_snoops=512
max_routing_table_size=512
point_of_coherency=true
point_of_unification=true
power_model=
power_state=system.collision_detection_clstr.coherency_bus.power_state
response_latency=1
snoop_filter=system.collision_detection_clstr.coherency_bus.snoop_filter
snoop_response_latency=4
system=system
use_default_range=false
width=2
cpu_side_ports=system.collision_detection_clstr.dma.dma
mem_side_ports=system.membus.cpu_side_ports[3]

[system.collision_detection_clstr.coherency_bus.power_state]
type=PowerState
clk_gate_bins=20
clk_gate_max=1000000000000
clk_gate_min=1000
default_state=UNDEFINED
eventq_index=0
leaders=
possible_states=

[system.collision_detection_clstr.coherency_bus.snoop_filter]
type=SnoopFilter
eventq_index=0
lookup_latency=1
max_capacity=8388608
system=system

[system.collision_detection_clstr.collision_detection]
type=CommInterface
children=hw_interface llvm_interface power_state
cache_line_size=64
clk_domain=system.clk_domain
clock_period=10
config_size=0
data_bases=0
devicename=collision_detection
enable_debug_msgs=true
eventq_index=0
flags_size=1
gic=system.realview.gic
int_num=-1
pio_addr=268568320
pio_latency=100000
pio_size=64
power_model=
power_state=system.collision_detection_clstr.collision_detection.power_state
premap_data=false
reset_spm=false
system=system
pio=system.collision_detection_clstr.local_bus.mem_side_ports[5]
spm=system.collision_detection_clstr.octree_of_environment.spm_ports[0] system.collision_detection_clstr.object_bounding_box_of_robot.spm_ports[0] system.collision_detection_clstr.result_of_collision.spm_ports[0]

[system.collision_detection_clstr.collision_detection.hw_interface]
type=HWInterface
children=cycle_counts functional_units hw_statistics inst_config opcodes salam_power_model simulator_config
cycle_counts=system.collision_detection_clstr.collision_detection.hw_interface.cycle_counts
eventq_index=0
functional_units=system.collision_detection_clstr.collision_detection.hw_interface.functional_units
hw_statistics=system.collision_detection_clstr.collision_detection.hw_interface.hw_statistics
inst_config=system.collision_detection_clstr.collision_detection.hw_interface.inst_config
opcodes=system.collision_detection_clstr.collision_detection.hw_interface.opcodes
salam_power_model=system.collision_detection_clstr.collision_detection.hw_interface.salam_power_model
simulator_config=system.collision_detection_clstr.collision_detection.hw_interface.simulator_config

[system.collision_detection_clstr.collision_detection.hw_interface.cycle_counts]
type=CycleCounts
add=0
addrspacecast=1
alloca=0
and_inst=1
ashr=1
atomicrmw=1
bitcast=0
br=0
call=0
catchpad=1
cmpxchg=1
counter=0
eventq_index=0
extractelement=1
extractvalue=1
fadd=5
fcmp=1
fdiv=16
fence=0
fmul=4
fpext=0
fptosi=0
fptoui=0
fptrunc=0
frem=16
fsub=5
gep=0
icmp=0
indirectbr=0
insertelement=1
insertvalue=1
inttoptr=0
invoke=0
landingpad=0
load=0
lshr=1
mul=1
or_inst=1
phi=0
ptrtoint=0
resume=0
ret=0
sdiv=1
select=0
sext=0
shl=1
shufflevector=1
sitofp=1
srem=1
store=0
sub=1
switch_inst=0
trunc=0
udiv=1
uitofp=0
unreachable=0
urem=1
vaarg=0
xor_inst=1
zext=0

[system.collision_detection_clstr.collision_detection.hw_interface.functional_units]
type=FunctionalUnits
children=bit_register bit_shifter bitwise_operations double_adder double_divider double_multiplier float_adder float_divider float_multiplier integer_adder integer_multiplier
bit_register=system.collision_detection_clstr.collision_detection.hw_interface.functional_units.bit_register
bit_shifter=system.collision_detection_clstr.collision_detection.hw_interface.functional_units.bit_shifter
bitwise_operations=system.collision_detection_clstr.collision_detection.hw_interface.functional_units.bitwise_operations
double_adder=system.collision_detection_clstr.collision_detection.hw_interface.functional_units.double_adder
double_divider=system.collision_detection_clstr.collision_detection.hw_interface.functional_units.double_divider
double_multiplier=system.collision_detection_clstr.collision_detection.hw_interface.functional_units.double_multiplier
eventq_index=0
float_adder=system.collision_detection_clstr.collision_detection.hw_interface.functional_units.float_adder
float_divider=system.collision_detection_clstr.collision_detection.hw_interface.functional_units.float_divider
float_multiplier=system.collision_detection_clstr.collision_detection.hw_interface.functional_units.float_multiplier
integer_adder=system.collision_detection_clstr.collision_detection.hw_interface.functional_units.integer_adder
integer_multiplier=system.collision_detection_clstr.collision_detection.hw_interface.functional_units.integer_multiplier

[system.collision_detection_clstr.collision_detection.hw_interface.functional_units.bit_register]
type=BitRegister
alias=bit_register
area=5
area_units=um^2
cycles=0
dynamic_energy=0
dynamic_power=0
energy_units=pJ
enum_value=15
eventq_index=0
fp_apmode=true
fp_sign=any
fp_size=any
fu_latency=5
int_apmode=true
int_sign=any
int_size=any
internal_power=0
leakage_power=0
limit=0
path_delay=1
power_units=mW
ptr_apmode=true
ptr_sign=any
ptr_size=any
stages=0
switch_power=0
time_units=ns

[system.collision_detection_clstr.collision_detection.hw_interface.functional_units.bit_shifter]
type=BitShifter
alias=bit_shifter
area=5
area_units=um^2
cycles=1
dynamic_energy=0
dynamic_power=0
energy_units=pJ
enum_value=3
eventq_index=0
fp_apmode=false
fp_sign=none
fp_size=none
fu_latency=5
int_apmode=true
int_sign=any
int_size=any
internal_power=0
leakage_power=0
limit=0
path_delay=1
power_units=mW
ptr_apmode=false
ptr_sign=none
ptr_size=none
stages=1
switch_power=0
time_units=ns

[system.collision_detection_clstr.collision_detection.hw_interface.functional_units.bitwise_operations]
type=BitwiseOperations
alias=bitwise_operations
area=5
area_units=um^2
cycles=1
dynamic_energy=0
dynamic_power=0
energy_units=pJ
enum_value=4
eventq_index=0
fp_apmode=false
fp_sign=none
fp_size=none
fu_latency=5
int_apmode=true
int_sign=any
int_size=any
internal_power=0
leakage_power=0
limit=0
path_delay=1
power_units=mW
ptr_apmode=false
ptr_sign=none
ptr_size=none
stages=1
switch_power=0
time_units=ns

[system.collision_detection_clstr.collision_detection.hw_interface.functional_units.double_adder]
type=DoubleAdder
alias=double_adder
area=5
area_units=um^2
cycles=5
dynamic_energy=0
dynamic_power=0
energy_units=pJ
enum_value=6
eventq_index=0
fp_apmode=true
fp_sign=any
fp_size=double
fu_latency=5
int_apmode=false
int_sign=none
int_size=none
internal_power=0
leakage_power=0
limit=0
path_delay=1
power_units=mW
ptr_apmode=false
ptr_sign=none
ptr_size=none
stages=3
switch_power=0
time_units=ns

[system.collision_detection_clstr.collision_detection.hw_interface.functional_units.double_divider]
type=DoubleDivider
alias=double_divider
area=5
area_units=um^2
cycles=16
dynamic_energy=0
dynamic_power=0
energy_units=pJ
enum_value=10
eventq_index=0
fp_apmode=true
fp_sign=any
fp_size=double
fu_latency=5
int_apmode=false
int_sign=none
int_size=none
internal_power=0
leakage_power=0
limit=0
path_delay=1
power_units=mW
ptr_apmode=false
ptr_sign=none
ptr_size=none
stages=3
switch_power=0
time_units=ns

[system.collision_detection_clstr.collision_detection.hw_interface.functional_units.double_multiplier]
type=DoubleMultiplier
alias=double_multiplier
area=5
area_units=um^2
cycles=5
dynamic_energy=0
dynamic_power=0
energy_units=pJ
enum_value=9
eventq_index=0
fp_apmode=true
fp_sign=any
fp_size=double
fu_latency=5
int_apmode=false
int_sign=none
int_size=none
internal_power=0
leakage_power=0
limit=0
path_delay=1
power_units=mW
ptr_apmode=false
ptr_sign=none
ptr_size=none
stages=3
switch_power=0
time_units=ns

[system.collision_detection_clstr.collision_detection.hw_interface.functional_units.float_adder]
type=FloatAdder
alias=float_adder
area=5
area_units=um^2
cycles=5
dynamic_energy=0
dynamic_power=0
energy_units=pJ
enum_value=5
eventq_index=0
fp_apmode=true
fp_sign=any
fp_size=single
fu_latency=5
int_apmode=false
int_sign=none
int_size=none
internal_power=0
leakage_power=0
limit=0
path_delay=1
power_units=mW
ptr_apmode=false
ptr_sign=none
ptr_size=none
stages=3
switch_power=0
time_units=ns

[system.collision_detection_clstr.collision_detection.hw_interface.functional_units.float_divider]
type=FloatDivider
alias=float_divider
area=5
area_units=um^2
cycles=16
dynamic_energy=0
dynamic_power=0
energy_units=pJ
enum_value=8
eventq_index=0
fp_apmode=true
fp_sign=any
fp_size=single
fu_latency=5
int_apmode=false
int_sign=none
int_size=none
internal_power=0
leakage_power=0
limit=0
path_delay=1
power_units=mW
ptr_apmode=false
ptr_sign=none
ptr_size=none
stages=3
switch_power=0
time_units=ns

[system.collision_detection_clstr.collision_detection.hw_interface.functional_units.float_multiplier]
type=FloatMultiplier
alias=float_multiplier
area=5
area_units=um^2
cycles=5
dynamic_energy=0
dynamic_power=0
energy_units=pJ
enum_value=7
eventq_index=0
fp_apmode=true
fp_sign=any
fp_size=single
fu_latency=5
int_apmode=false
int_sign=none
int_size=none
internal_power=0
leakage_power=0
limit=0
path_delay=1
power_units=mW
ptr_apmode=false
ptr_sign=none
ptr_size=none
stages=3
switch_power=0
time_units=ns

[system.collision_detection_clstr.collision_detection.hw_interface.functional_units.integer_adder]
type=IntegerAdder
alias=integer_adder
area=5
area_units=um^2
cycles=1
dynamic_energy=0
dynamic_power=0
energy_units=pJ
enum_value=1
eventq_index=0
fp_apmode=false
fp_sign=none
fp_size=none
fu_latency=5
int_apmode=true
int_sign=any
int_size=any
internal_power=0
leakage_power=0
limit=0
path_delay=1
power_units=mW
ptr_apmode=false
ptr_sign=none
ptr_size=none
stages=1
switch_power=0
time_units=ns

[system.collision_detection_clstr.collision_detection.hw_interface.functional_units.integer_multiplier]
type=IntegerMultiplier
alias=integer_multiplier
area=5
area_units=um^2
cycles=1
dynamic_energy=0
dynamic_power=0
energy_units=pJ
enum_value=2
eventq_index=0
fp_apmode=false
fp_sign=none
fp_size=none
fu_latency=5
int_apmode=true
int_sign=any
int_size=any
internal_power=0
leakage_power=0
limit=0
path_delay=1
power_units=mW
ptr_apmode=false
ptr_sign=none
ptr_size=none
stages=1
switch_power=0
time_units=ns

[system.collision_detection_clstr.collision_detection.hw_interface.hw_statistics]
type=HWStatistics
eventq_index=0

[system.collision_detection_clstr.collision_detection.hw_interface.inst_config]
type=InstConfig
children=add addrspacecast alloca and_inst ashr bitcast br call fadd fcmp fdiv fence fmul fpext fptosi fptoui fptrunc frem fsub gep icmp indirectbr inttoptr invoke landingpad load lshr mul or_inst phi ptrtoint resume ret sdiv select sext shl srem store sub switch_inst trunc udiv uitofp unreachable urem vaarg xor_inst zext
add=system.collision_detection_clstr.collision_detection.hw_interface.inst_config.add
addrspacecast=system.collision_detection_clstr.collision_detection.hw_interface.inst_config.addrspacecast
alloca=system.collision_detection_clstr.collision_detection.hw_interface.inst_config.alloca
and_inst=system.collision_detection_clstr.collision_detection.hw_interface.inst_config.and_inst
ashr=system.collision_detection_clstr.collision_detection.hw_interface.inst_config.ashr
bitcast=system.collision_detection_clstr.collision_detection.hw_interface.inst_config.bitcast
br=system.collision_detection_clstr.collision_detection.hw_interface.inst_config.br
call=system.collision_detection_clstr.collision_detection.hw_interface.inst_config.call
eventq_index=0
fadd=system.collision_detection_clstr.collision_detection.hw_interface.inst_config.fadd
fcmp=system.collision_detection_clstr.collision_detection.hw_interface.inst_config.fcmp
fdiv=system.collision_detection_clstr.collision_detection.hw_interface.inst_config.fdiv
fence=system.collision_detection_clstr.collision_detection.hw_interface.inst_config.fence
fmul=system.collision_detection_clstr.collision_detection.hw_interface.inst_config.fmul
fpext=system.collision_detection_clstr.collision_detection.hw_interface.inst_config.fpext
fptosi=system.collision_detection_clstr.collision_detection.hw_interface.inst_config.fptosi
fptoui=system.collision_detection_clstr.collision_detection.hw_interface.inst_config.fptoui
fptrunc=system.collision_detection_clstr.collision_detection.hw_interface.inst_config.fptrunc
frem=system.collision_detection_clstr.collision_detection.hw_interface.inst_config.frem
fsub=system.collision_detection_clstr.collision_detection.hw_interface.inst_config.fsub
gep=system.collision_detection_clstr.collision_detection.hw_interface.inst_config.gep
icmp=system.collision_detection_clstr.collision_detection.hw_interface.inst_config.icmp
indirectbr=system.collision_detection_clstr.collision_detection.hw_interface.inst_config.indirectbr
inttoptr=system.collision_detection_clstr.collision_detection.hw_interface.inst_config.inttoptr
invoke=system.collision_detection_clstr.collision_detection.hw_interface.inst_config.invoke
landingpad=system.collision_detection_clstr.collision_detection.hw_interface.inst_config.landingpad
load=system.collision_detection_clstr.collision_detection.hw_interface.inst_config.load
lshr=system.collision_detection_clstr.collision_detection.hw_interface.inst_config.lshr
mul=system.collision_detection_clstr.collision_detection.hw_interface.inst_config.mul
or_inst=system.collision_detection_clstr.collision_detection.hw_interface.inst_config.or_inst
phi=system.collision_detection_clstr.collision_detection.hw_interface.inst_config.phi
ptrtoint=system.collision_detection_clstr.collision_detection.hw_interface.inst_config.ptrtoint
resume=system.collision_detection_clstr.collision_detection.hw_interface.inst_config.resume
ret=system.collision_detection_clstr.collision_detection.hw_interface.inst_config.ret
sdiv=system.collision_detection_clstr.collision_detection.hw_interface.inst_config.sdiv
select=system.collision_detection_clstr.collision_detection.hw_interface.inst_config.select
sext=system.collision_detection_clstr.collision_detection.hw_interface.inst_config.sext
shl=system.collision_detection_clstr.collision_detection.hw_interface.inst_config.shl
srem=system.collision_detection_clstr.collision_detection.hw_interface.inst_config.srem
store=system.collision_detection_clstr.collision_detection.hw_interface.inst_config.store
sub=system.collision_detection_clstr.collision_detection.hw_interface.inst_config.sub
switch_inst=system.collision_detection_clstr.collision_detection.hw_interface.inst_config.switch_inst
trunc=system.collision_detection_clstr.collision_detection.hw_interface.inst_config.trunc
udiv=system.collision_detection_clstr.collision_detection.hw_interface.inst_config.udiv
uitofp=system.collision_detection_clstr.collision_detection.hw_interface.inst_config.uitofp
unreachable=system.collision_detection_clstr.collision_detection.hw_interface.inst_config.unreachable
urem=system.collision_detection_clstr.collision_detection.hw_interface.inst_config.urem
vaarg=system.collision_detection_clstr.collision_detection.hw_interface.inst_config.vaarg
xor_inst=system.collision_detection_clstr.collision_detection.hw_interface.inst_config.xor_inst
zext=system.collision_detection_clstr.collision_detection.hw_interface.inst_config.zext

[system.collision_detection_clstr.collision_detection.hw_interface.inst_config.add]
type=Add
eventq_index=0
functional_unit=1
functional_unit_limit=0
opcode_num=13
runtime_cycles=0

[system.collision_detection_clstr.collision_detection.hw_interface.inst_config.addrspacecast]
type=Addrspacecast
eventq_index=0
functional_unit=0
functional_unit_limit=0
opcode_num=50
runtime_cycles=1

[system.collision_detection_clstr.collision_detection.hw_interface.inst_config.alloca]
type=Alloca
eventq_index=0
functional_unit=0
functional_unit_limit=0
opcode_num=31
runtime_cycles=0

[system.collision_detection_clstr.collision_detection.hw_interface.inst_config.and_inst]
type=AndInst
eventq_index=0
functional_unit=4
functional_unit_limit=0
opcode_num=28
runtime_cycles=1

[system.collision_detection_clstr.collision_detection.hw_interface.inst_config.ashr]
type=Ashr
eventq_index=0
functional_unit=3
functional_unit_limit=0
opcode_num=27
runtime_cycles=1

[system.collision_detection_clstr.collision_detection.hw_interface.inst_config.bitcast]
type=Bitcast
eventq_index=0
functional_unit=0
functional_unit_limit=0
opcode_num=49
runtime_cycles=0

[system.collision_detection_clstr.collision_detection.hw_interface.inst_config.br]
type=Br
eventq_index=0
functional_unit=0
functional_unit_limit=0
opcode_num=2
runtime_cycles=0

[system.collision_detection_clstr.collision_detection.hw_interface.inst_config.call]
type=Call
eventq_index=0
functional_unit=0
functional_unit_limit=0
opcode_num=56
runtime_cycles=0

[system.collision_detection_clstr.collision_detection.hw_interface.inst_config.fadd]
type=Fadd
eventq_index=0
functional_unit=5
functional_unit_limit=0
opcode_num=14
runtime_cycles=5

[system.collision_detection_clstr.collision_detection.hw_interface.inst_config.fcmp]
type=Fcmp
eventq_index=0
functional_unit=0
functional_unit_limit=0
opcode_num=54
runtime_cycles=1

[system.collision_detection_clstr.collision_detection.hw_interface.inst_config.fdiv]
type=Fdiv
eventq_index=0
functional_unit=10
functional_unit_limit=0
opcode_num=21
runtime_cycles=16

[system.collision_detection_clstr.collision_detection.hw_interface.inst_config.fence]
type=Fence
eventq_index=0
functional_unit=0
functional_unit_limit=0
opcode_num=35
runtime_cycles=0

[system.collision_detection_clstr.collision_detection.hw_interface.inst_config.fmul]
type=Fmul
eventq_index=0
functional_unit=7
functional_unit_limit=0
opcode_num=18
runtime_cycles=4

[system.collision_detection_clstr.collision_detection.hw_interface.inst_config.fpext]
type=Fpext
eventq_index=0
functional_unit=0
functional_unit_limit=0
opcode_num=46
runtime_cycles=0

[system.collision_detection_clstr.collision_detection.hw_interface.inst_config.fptosi]
type=Fptosi
eventq_index=0
functional_unit=0
functional_unit_limit=0
opcode_num=42
runtime_cycles=0

[system.collision_detection_clstr.collision_detection.hw_interface.inst_config.fptoui]
type=Fptoui
eventq_index=0
functional_unit=0
functional_unit_limit=0
opcode_num=41
runtime_cycles=0

[system.collision_detection_clstr.collision_detection.hw_interface.inst_config.fptrunc]
type=Fptrunc
eventq_index=0
functional_unit=0
functional_unit_limit=0
opcode_num=45
runtime_cycles=0

[system.collision_detection_clstr.collision_detection.hw_interface.inst_config.frem]
type=Frem
eventq_index=0
functional_unit=0
functional_unit_limit=0
opcode_num=24
runtime_cycles=16

[system.collision_detection_clstr.collision_detection.hw_interface.inst_config.fsub]
type=Fsub
eventq_index=0
functional_unit=6
functional_unit_limit=0
opcode_num=16
runtime_cycles=5

[system.collision_detection_clstr.collision_detection.hw_interface.inst_config.gep]
type=Gep
eventq_index=0
functional_unit=0
functional_unit_limit=0
opcode_num=34
runtime_cycles=0

[system.collision_detection_clstr.collision_detection.hw_interface.inst_config.icmp]
type=Icmp
eventq_index=0
functional_unit=0
functional_unit_limit=0
opcode_num=53
runtime_cycles=0

[system.collision_detection_clstr.collision_detection.hw_interface.inst_config.indirectbr]
type=Indirectbr
eventq_index=0
functional_unit=0
functional_unit_limit=0
opcode_num=4
runtime_cycles=0

[system.collision_detection_clstr.collision_detection.hw_interface.inst_config.inttoptr]
type=Inttoptr
eventq_index=0
functional_unit=0
functional_unit_limit=0
opcode_num=48
runtime_cycles=0

[system.collision_detection_clstr.collision_detection.hw_interface.inst_config.invoke]
type=Invoke
eventq_index=0
functional_unit=0
functional_unit_limit=0
opcode_num=5
runtime_cycles=0

[system.collision_detection_clstr.collision_detection.hw_interface.inst_config.landingpad]
type=Landingpad
eventq_index=0
functional_unit=0
functional_unit_limit=0
opcode_num=66
runtime_cycles=0

[system.collision_detection_clstr.collision_detection.hw_interface.inst_config.load]
type=Load
eventq_index=0
functional_unit=0
functional_unit_limit=0
opcode_num=32
runtime_cycles=0

[system.collision_detection_clstr.collision_detection.hw_interface.inst_config.lshr]
type=Lshr
eventq_index=0
functional_unit=3
functional_unit_limit=0
opcode_num=26
runtime_cycles=1

[system.collision_detection_clstr.collision_detection.hw_interface.inst_config.mul]
type=Mul
eventq_index=0
functional_unit=2
functional_unit_limit=0
opcode_num=17
runtime_cycles=1

[system.collision_detection_clstr.collision_detection.hw_interface.inst_config.or_inst]
type=OrInst
eventq_index=0
functional_unit=4
functional_unit_limit=0
opcode_num=29
runtime_cycles=1

[system.collision_detection_clstr.collision_detection.hw_interface.inst_config.phi]
type=Phi
eventq_index=0
functional_unit=0
functional_unit_limit=0
opcode_num=55
runtime_cycles=0

[system.collision_detection_clstr.collision_detection.hw_interface.inst_config.ptrtoint]
type=Ptrtoint
eventq_index=0
functional_unit=0
functional_unit_limit=0
opcode_num=47
runtime_cycles=0

[system.collision_detection_clstr.collision_detection.hw_interface.inst_config.resume]
type=Resume
eventq_index=0
functional_unit=0
functional_unit_limit=0
opcode_num=6
runtime_cycles=0

[system.collision_detection_clstr.collision_detection.hw_interface.inst_config.ret]
type=Ret
eventq_index=0
functional_unit=0
functional_unit_limit=0
opcode_num=1
runtime_cycles=0

[system.collision_detection_clstr.collision_detection.hw_interface.inst_config.sdiv]
type=Sdiv
eventq_index=0
functional_unit=2
functional_unit_limit=0
opcode_num=20
runtime_cycles=1

[system.collision_detection_clstr.collision_detection.hw_interface.inst_config.select]
type=Select
eventq_index=0
functional_unit=0
functional_unit_limit=0
opcode_num=57
runtime_cycles=0

[system.collision_detection_clstr.collision_detection.hw_interface.inst_config.sext]
type=Sext
eventq_index=0
functional_unit=0
functional_unit_limit=0
opcode_num=40
runtime_cycles=0

[system.collision_detection_clstr.collision_detection.hw_interface.inst_config.shl]
type=Shl
eventq_index=0
functional_unit=3
functional_unit_limit=0
opcode_num=25
runtime_cycles=1

[system.collision_detection_clstr.collision_detection.hw_interface.inst_config.srem]
type=Srem
eventq_index=0
functional_unit=0
functional_unit_limit=0
opcode_num=23
runtime_cycles=1

[system.collision_detection_clstr.collision_detection.hw_interface.inst_config.store]
type=Store
eventq_index=0
functional_unit=0
functional_unit_limit=0
opcode_num=33
runtime_cycles=0

[system.collision_detection_clstr.collision_detection.hw_interface.inst_config.sub]
type=Sub
eventq_index=0
functional_unit=1
functional_unit_limit=0
opcode_num=15
runtime_cycles=1

[system.collision_detection_clstr.collision_detection.hw_interface.inst_config.switch_inst]
type=SwitchInst
eventq_index=0
functional_unit=0
functional_unit_limit=0
opcode_num=3
runtime_cycles=0

[system.collision_detection_clstr.collision_detection.hw_interface.inst_config.trunc]
type=Trunc
eventq_index=0
functional_unit=0
functional_unit_limit=0
opcode_num=38
runtime_cycles=0

[system.collision_detection_clstr.collision_detection.hw_interface.inst_config.udiv]
type=Udiv
eventq_index=0
functional_unit=2
functional_unit_limit=0
opcode_num=19
runtime_cycles=1

[system.collision_detection_clstr.collision_detection.hw_interface.inst_config.uitofp]
type=Uitofp
eventq_index=0
functional_unit=0
functional_unit_limit=0
opcode_num=43
runtime_cycles=0

[system.collision_detection_clstr.collision_detection.hw_interface.inst_config.unreachable]
type=Unreachable
eventq_index=0
functional_unit=0
functional_unit_limit=0
opcode_num=7
runtime_cycles=0

[system.collision_detection_clstr.collision_detection.hw_interface.inst_config.urem]
type=Urem
eventq_index=0
functional_unit=0
functional_unit_limit=0
opcode_num=22
runtime_cycles=1

[system.collision_detection_clstr.collision_detection.hw_interface.inst_config.vaarg]
type=Vaarg
eventq_index=0
functional_unit=0
functional_unit_limit=0
opcode_num=60
runtime_cycles=0

[system.collision_detection_clstr.collision_detection.hw_interface.inst_config.xor_inst]
type=XorInst
eventq_index=0
functional_unit=4
functional_unit_limit=0
opcode_num=30
runtime_cycles=1

[system.collision_detection_clstr.collision_detection.hw_interface.inst_config.zext]
type=Zext
eventq_index=0
functional_unit=0
functional_unit_limit=0
opcode_num=39
runtime_cycles=0

[system.collision_detection_clstr.collision_detection.hw_interface.opcodes]
type=InstOpCodes
add=13
addrspacecast=50
alloca=31
and_inst=28
ashr=27
bitcast=49
br=2
call=56
eventq_index=0
fadd=14
fcmp=54
fdiv=21
fence=35
fmul=18
fpext=46
fptosi=42
fptoui=41
fptrunc=45
frem=24
fsub=16
gep=34
icmp=53
indirectbr=4
inttoptr=48
invoke=5
landingpad=66
load=32
lshr=26
mul=17
or_inst=29
phi=55
ptrtoint=47
resume=6
ret=1
sdiv=20
select=57
sext=40
shl=25
srem=23
store=33
sub=15
switch_inst=3
trunc=38
udiv=19
uitofp=43
unreachable=7
urem=22
vaarg=60
xor_inst=30
zext=39

[system.collision_detection_clstr.collision_detection.hw_interface.salam_power_model]
type=SALAMPowerModel
eventq_index=0

[system.collision_detection_clstr.collision_detection.hw_interface.simulator_config]
type=SimulatorConfig
eventq_index=0

[system.collision_detection_clstr.collision_detection.llvm_interface]
type=LLVMInterface
clock_period=10
comm_int=system.collision_detection_clstr.collision_detection
eventq_index=0
hw_int=system.collision_detection_clstr.collision_detection.hw_interface
in_file=/home/ariya/gem5-SALAM/benchmarks/sys_validation/collision_detection//hw/collision_detection.ll
lockstep_mode=true
sched_threshold=10000
top_name=top

[system.collision_detection_clstr.collision_detection.power_state]
type=PowerState
clk_gate_bins=20
clk_gate_max=1000000000000
clk_gate_min=1000
default_state=UNDEFINED
eventq_index=0
leaders=
possible_states=

[system.collision_detection_clstr.collision_result]
type=ScratchpadMemory
children=power_state
bandwidth=78.000000
clk_domain=system.clk_domain
conf_table_reported=false
eventq_index=0
image_file=
in_addr_map=true
kvm_map=true
latency=2000
latency_var=0
null=false
power_model=
power_state=system.collision_detection_clstr.collision_result.power_state
range=268568256:268568260
read_on_invalid=false
ready_mode=false
reset_on_scratchpad_read=true
write_on_valid=true
port=system.collision_detection_clstr.local_bus.mem_side_ports[4]
spm_ports=system.collision_detection_clstr.top.spm[2]

[system.collision_detection_clstr.collision_result.power_state]
type=PowerState
clk_gate_bins=20
clk_gate_max=1000000000000
clk_gate_min=1000
default_state=UNDEFINED
eventq_index=0
leaders=
possible_states=

[system.collision_detection_clstr.dma]
type=NoncoherentDma
children=power_state
buffer_size=128
clk_domain=system.clk_domain
clock_period=10
devicename=noncoherent_dma
eventq_index=0
gic=system.realview.gic
int_num=95
max_pending=8
max_req_size=64
pio_addr=268566528
pio_delay=100000
pio_size=21
power_model=